* Z:\home\lucas\win\Users\Lucas\Desktop\ifsc\powerEletronics\Flyback\simulation\Draft2.asc
XU1 NC_01 NC_02 NC_03 NC_04 0 N001 N002 NC_05 UCC28C45_STEADY
B1 N002 0 V=F(...)
R1 N001 0 500
.tran 0.01 1
.lib Z:\home\lucas\win\Users\Lucas\Desktop\ifsc\powerEletronics\Flyback\simulation\ucc28c45.lib
.backanno
.end
