Version 4
SHEET 1 880 680
WIRE -64 -304 -528 -304
WIRE 240 -304 -64 -304
WIRE 320 -304 240 -304
WIRE -528 -240 -528 -304
WIRE -64 -240 -64 -304
WIRE 240 -240 240 -304
WIRE 320 -240 320 -304
WIRE 240 -144 240 -160
WIRE 320 -144 320 -176
WIRE 320 -144 240 -144
WIRE 320 -96 320 -144
WIRE -528 -64 -528 -176
WIRE -512 -64 -528 -64
WIRE -384 -64 -432 -64
WIRE -336 -64 -384 -64
WIRE -64 -64 -64 -160
WIRE -64 -64 -256 -64
WIRE -64 0 -64 -64
WIRE -384 48 -384 -64
WIRE -240 48 -384 48
WIRE -352 128 -368 128
WIRE -256 128 -272 128
WIRE -384 176 -384 48
WIRE -368 176 -368 128
WIRE -368 176 -384 176
WIRE -256 176 -256 128
WIRE -240 176 -256 176
WIRE -368 224 -368 176
WIRE -352 224 -368 224
WIRE -256 224 -256 176
WIRE -256 224 -288 224
WIRE -816 288 -880 288
WIRE -592 288 -656 288
WIRE -816 320 -864 320
WIRE -592 320 -656 320
WIRE -816 352 -864 352
WIRE -592 352 -656 352
WIRE -816 384 -880 384
WIRE -592 384 -656 384
FLAG -880 288 comp_1
FLAG -864 320 fb_2
FLAG -864 352 cs_3
FLAG -880 384 rtct_4
FLAG -592 384 vref_8
FLAG -592 320 out_6
FLAG -592 352 vcc_7
FLAG -592 288 gnd_5
FLAG -240 176 comp_1
FLAG -240 48 fb_2
FLAG -336 480 cs_3
FLAG -112 448 rtct_4
FLAG 176 208 vref_8
FLAG 96 400 out_6
FLAG -64 0 vcc_7
FLAG 176 112 gnd_5
SYMBOL AutoGenerated\\UCC28C45_STEADY -736 336 R0
SYMATTR InstName U1
SYMBOL cap -544 -240 R0
SYMATTR InstName C1
SYMATTR Value 250µf
SYMBOL cap 304 -240 R0
SYMATTR InstName C9
SYMBOL res -48 -144 R180
WINDOW 0 36 76 Left 2
WINDOW 3 36 40 Left 2
SYMATTR InstName R2
SYMATTR Value 56k
SYMBOL res 256 -144 R180
WINDOW 0 36 76 Left 2
WINDOW 3 36 40 Left 2
SYMATTR InstName R2
SYMATTR Value R12
SYMBOL diode 336 -32 R180
WINDOW 0 24 64 Left 2
WINDOW 3 24 0 Left 2
SYMATTR InstName D1
SYMBOL res -240 -80 R90
WINDOW 0 0 56 VBottom 2
WINDOW 3 32 56 VTop 2
SYMATTR InstName R3
SYMATTR Value 20k
SYMBOL res -416 -80 R90
WINDOW 0 0 56 VBottom 2
WINDOW 3 32 56 VTop 2
SYMATTR InstName R4
SYMATTR Value 4.7k
SYMBOL res -256 112 R90
WINDOW 0 0 56 VBottom 2
WINDOW 3 32 56 VTop 2
SYMATTR InstName R1
SYMBOL cap -288 208 R90
WINDOW 0 0 32 VBottom 2
WINDOW 3 32 32 VTop 2
SYMATTR InstName C2
RECTANGLE Normal -16 416 -256 -32 2
